*HEADING
cubit(ktop/cavity-resonator/rectangular_waveguide_3d_coarse.inp): 05/24/2022: 14
version: 2022.4
**
********************************** P A R T S **********************************
*PART, NAME=Part-Default
**
********************************** N O D E S **********************************
*NODE, NSET=ALLNODES
       1,   -5.000000e-01,    2.500000e-01,    3.750000e-01
       2,   -5.000000e-01,    2.500000e-01,   -3.750000e-01
       3,   -5.000000e-01,   -2.500000e-01,   -3.750000e-01
       4,   -5.000000e-01,   -2.500000e-01,    3.750000e-01
       5,    5.000000e-01,   -2.500000e-01,    3.750000e-01
       6,    5.000000e-01,   -2.500000e-01,   -3.750000e-01
       7,    5.000000e-01,    2.500000e-01,   -3.750000e-01
       8,    5.000000e-01,    2.500000e-01,    3.750000e-01
       9,   -5.000000e-01,    2.500000e-01,    2.250000e-01
      10,   -5.000000e-01,    2.500000e-01,    7.500000e-02
      11,   -5.000000e-01,    2.500000e-01,   -7.500000e-02
      12,   -5.000000e-01,    2.500000e-01,   -2.250000e-01
      13,   -5.000000e-01,   -8.333333e-02,   -3.750000e-01
      14,   -5.000000e-01,    8.333333e-02,   -3.750000e-01
      15,   -5.000000e-01,   -2.500000e-01,    2.250000e-01
      16,   -5.000000e-01,   -2.500000e-01,    7.500000e-02
      17,   -5.000000e-01,   -2.500000e-01,   -7.500000e-02
      18,   -5.000000e-01,   -2.500000e-01,   -2.250000e-01
      19,   -5.000000e-01,    8.333333e-02,    3.750000e-01
      20,   -5.000000e-01,   -8.333333e-02,    3.750000e-01
** ... 240 like lines cut
**
********************************** E L E M E N T S ****************************
*ELEMENT, TYPE=C3D4, ELSET=Tetrahedrons
       1,     151,     152,     153,     154
       2,     137,     154,     155,     156
       3,     137,     155,     154,     157
       4,     154,     158,     156,     159
       5,     153,     158,     154,     159
       6,     108,     160,     125,     161
       7,     161,     163,     162,     164
       8,     108,     161,     125,     162
       9,      46,     108,     107,     161
      10,      93,     161,      46,     164
      11,      93,      47,     161,     165
      12,      47,     108,     161,     165
      13,      47,     112,     165,     166
      14,      93,     161,     164,     167
      15,     161,     163,     164,     167
      16,     168,     169,     170,     171
      17,     114,     171,     172,     173
      18,     146,     144,     149,     174
      19,     168,     171,     170,     173
      20,     114,     171,     120,     172
** ... 998 like lines cut
*ELEMENT, TYPE=STRI3, ELSET=PECWalls
    1019,      88,       5,      31
    1020,       8,      86,      32
    1021,      88,      42,       5
    1022,       8,      33,      86
    1023,      35,      74,      34
    1024,      87,       4,      38
    1025,       1,      89,      37
    1026,      76,      36,      37
    1027,      77,      35,      36
    1028,      87,      20,       4
    1029,       1,      19,      89
    1030,      74,      82,      34
    1031,      79,      87,      38
    1032,      84,      75,      79
    1033,      78,      85,      81
    1034,      82,      33,      34
    1035,      73,      31,      32
    1036,      78,      41,      42
    1037,      85,      78,      73
    1038,      80,      39,      40
** ... 276 like lines cut
**
********************************** P R O P E R T I E S ************************
*SOLID SECTION, ELSET=Tetrahedrons, MATERIAL=Default-Steel
*SHELL SECTION, ELSET=PECWalls, SECTION INTEGRATION=SIMPSON, MATERIAL=Default-Steel
1.000000e+00
**
*END PART
**
**
**
********************************** E N D   P A R T S **********************************
**
**
********************************** A S S E M B L Y ************************************
**
*ASSEMBLY, NAME=ASSEMBLY1
**
*INSTANCE, NAME=Part-Default_1, PART=Part-Default
*END INSTANCE
**
*END ASSEMBLY
**
**
**
*MATERIAL, NAME = Default-Steel
*ELASTIC, TYPE=ISOTROPIC
2.068000e+05, 2.900000e-01
*DENSITY
7.000000e-06
*CONDUCTIVITY,TYPE=ISO
4.500000e-02
*SPECIFIC HEAT
5.000000e+02
**
**
************************************** H I S T O R Y *************************************
**
*PREPRINT
**
**************************************** S T E P 1 ***************************************
*STEP,INC=100,NAME=Default Set
**
*STATIC
1, 1, 1e-05, 1
**
**
**
**
*END STEP
