*HEADING
cubit(y-resonator/rectangular_waveguide_3d_even_less_coarse.inp): 06/04/2022: 19
version: 2021.11
**
********************************** P A R T S **********************************
*PART, NAME=Part-Default
**
********************************** N O D E S **********************************
*NODE, NSET=ALLNODES
       1,   -5.000000e-01,    2.500000e-01,    3.750000e-01
       2,   -5.000000e-01,    2.500000e-01,   -3.750000e-01
       3,   -5.000000e-01,   -2.500000e-01,   -3.750000e-01
       4,   -5.000000e-01,   -2.500000e-01,    3.750000e-01
       5,    5.000000e-01,   -2.500000e-01,    3.750000e-01
       6,    5.000000e-01,   -2.500000e-01,   -3.750000e-01
       7,    5.000000e-01,    2.500000e-01,   -3.750000e-01
       8,    5.000000e-01,    2.500000e-01,    3.750000e-01
       9,   -5.000000e-01,    2.500000e-01,    3.068182e-01
      10,   -5.000000e-01,    2.500000e-01,    2.386364e-01
      11,   -5.000000e-01,    2.500000e-01,    1.704545e-01
      12,   -5.000000e-01,    2.500000e-01,    1.022727e-01
      13,   -5.000000e-01,    2.500000e-01,    3.409091e-02
      14,   -5.000000e-01,    2.500000e-01,   -3.409091e-02
      15,   -5.000000e-01,    2.500000e-01,   -1.022727e-01
      16,   -5.000000e-01,    2.500000e-01,   -1.704545e-01
      17,   -5.000000e-01,    2.500000e-01,   -2.386364e-01
      18,   -5.000000e-01,    2.500000e-01,   -3.068182e-01
      19,   -5.000000e-01,   -1.785714e-01,   -3.750000e-01
      20,   -5.000000e-01,   -1.071429e-01,   -3.750000e-01
** ... 2259 like lines cut
**
********************************** E L E M E N T S ****************************
*ELEMENT, TYPE=C3D4, ELSET=Tetrahedrons
       1,     729,     730,     731,     732
       2,     732,     734,     733,     735
       3,     732,     737,     736,     738
       4,     730,     731,     732,     739
       5,     731,     738,     732,     739
       6,     740,     741,     742,     743
       7,     742,     745,     744,     746
       8,     743,     748,     747,     749
       9,     743,     746,     748,     749
      10,     750,     751,     752,     753
      11,     741,     754,     743,     755
      12,     756,     757,     758,     759
      13,     745,     760,     755,     761
      14,     762,     763,     764,     765
      15,     762,     765,     764,     766
      16,     765,     768,     767,     769
      17,     763,     764,     765,     770
      18,     765,     769,     767,     770
      19,     771,     772,     773,     774
      20,     771,     774,     773,     775
** ... 11365 like lines cut
*ELEMENT, TYPE=STRI3, ELSET=PECWalls
   11386,      68,     261,      67
   11387,     262,     265,      69
   11388,     263,     262,      70
   11389,     264,     263,      71
   11390,       8,      73,      72
   11391,     265,      68,      69
   11392,      98,       5,      67
   11393,     266,     264,      73
   11394,     268,     267,      75
   11395,     269,     286,      77
   11396,     270,     269,      78
   11397,      82,     271,      81
   11398,      84,     272,      83
   11399,     273,     272,      84
   11400,       1,      35,      85
   11401,     274,      82,      83
   11402,     275,      80,      81
   11403,      35,     276,     273
   11404,     277,     276,      36
   11405,     278,      79,      80
** ... 1432 like lines cut
**
********************************** P R O P E R T I E S ************************
*SOLID SECTION, ELSET=Tetrahedrons, MATERIAL=Default-Steel
*SHELL SECTION, ELSET=PECWalls, SECTION INTEGRATION=SIMPSON, MATERIAL=Default-Steel
1.000000e+00
**
*END PART
**
**
**
********************************** E N D   P A R T S **********************************
**
**
********************************** A S S E M B L Y ************************************
**
*ASSEMBLY, NAME=ASSEMBLY1
**
*INSTANCE, NAME=Part-Default_1, PART=Part-Default
*END INSTANCE
**
*END ASSEMBLY
**
**
**
*MATERIAL, NAME = Default-Steel
*ELASTIC, TYPE=ISOTROPIC
2.068000e+05, 2.900000e-01
*DENSITY
7.000000e-06
*CONDUCTIVITY,TYPE=ISO
4.500000e-02
*SPECIFIC HEAT
5.000000e+02
**
**
************************************** H I S T O R Y *************************************
**
*PREPRINT
**
**************************************** S T E P 1 ***************************************
*STEP,INC=100,NAME=Default Set
**
*STATIC
1, 1, 1e-05, 1
**
**
**
**
*END STEP
