*HEADING
cubit(os/cavity-resonator/rectangular_waveguide_3d_fine_pec.inp): 05/30/2022: 14
version: 2021.11
**
********************************** P A R T S **********************************
*PART, NAME=Part-Default
**
********************************** N O D E S **********************************
*NODE, NSET=ALLNODES
       1,   -5.000000e-01,    2.500000e-01,    3.750000e-01
       2,   -5.000000e-01,    2.500000e-01,   -3.750000e-01
       3,   -5.000000e-01,   -2.500000e-01,   -3.750000e-01
       4,   -5.000000e-01,   -2.500000e-01,    3.750000e-01
       5,    5.000000e-01,   -2.500000e-01,    3.750000e-01
       6,    5.000000e-01,   -2.500000e-01,   -3.750000e-01
       7,    5.000000e-01,    2.500000e-01,   -3.750000e-01
       8,    5.000000e-01,    2.500000e-01,    3.750000e-01
       9,   -5.000000e-01,    2.500000e-01,    3.281250e-01
      10,   -5.000000e-01,    2.500000e-01,    2.812500e-01
      11,   -5.000000e-01,    2.500000e-01,    2.343750e-01
      12,   -5.000000e-01,    2.500000e-01,    1.875000e-01
      13,   -5.000000e-01,    2.500000e-01,    1.406250e-01
      14,   -5.000000e-01,    2.500000e-01,    9.375000e-02
      15,   -5.000000e-01,    2.500000e-01,    4.687500e-02
      16,   -5.000000e-01,    2.500000e-01,    0.000000e+00
      17,   -5.000000e-01,    2.500000e-01,   -4.687500e-02
      18,   -5.000000e-01,    2.500000e-01,   -9.375000e-02
      19,   -5.000000e-01,    2.500000e-01,   -1.406250e-01
      20,   -5.000000e-01,    2.500000e-01,   -1.875000e-01
** ... 7579 like lines cut
**
********************************** E L E M E N T S ****************************
*ELEMENT, TYPE=C3D4, ELSET=Tetrahedrons
       1,    1743,    1744,    1745,    1746
       2,    1747,    1748,    1749,    1750
       3,    1750,    1752,    1751,    1753
       4,    1754,    1755,    1756,    1757
       5,    1752,    1759,    1758,    1760
       6,    1750,    1753,    1761,    1762
       7,    1750,    1752,    1762,    1763
       8,    1750,    1763,    1762,    1764
       9,    1765,    1766,    1767,    1768
      10,    1767,    1768,    1769,    1770
      11,    1768,    1772,    1771,    1773
      12,    1768,    1769,    1774,    1775
      13,    1768,    1769,    1773,    1774
      14,    1766,    1768,    1776,    1777
      15,      28,      27,     800,     200
      16,    1766,    1775,    1768,    1777
      17,    1778,    1779,    1780,    1781
      18,    1782,    1783,    1784,    1785
      19,    1783,    1784,    1785,    1786
      20,    1779,    1783,    1785,    1786
** ... 40335 like lines cut
*ELEMENT, TYPE=STRI3, ELSET=EB2
   40356,     101,     527,     100
   40357,     528,     527,     101
   40358,     104,     529,     103
   40359,     530,     529,     104
   40360,     531,     530,     105
   40361,     532,     531,     106
   40362,     533,     532,     107
   40363,       8,     109,     108
   40364,     534,     102,     103
   40365,     535,      99,     100
   40366,     536,     533,     108
   40367,     150,       5,      99
   40368,     537,     536,     110
   40369,     538,     537,     111
   40370,     539,     538,     112
   40371,     144,     145,     540
   40372,     621,     573,     541
   40373,     542,     541,     116
   40374,     543,     542,     117
   40375,     124,     544,     123
** ... 3460 like lines cut
**
********************************** P R O P E R T I E S ************************
*SOLID SECTION, ELSET=Tetrahedrons, MATERIAL=Default-Steel
*SHELL SECTION, ELSET=EB2, SECTION INTEGRATION=SIMPSON, MATERIAL=Default-Steel
1.000000e+00
**
*END PART
**
**
**
********************************** E N D   P A R T S **********************************
**
**
********************************** A S S E M B L Y ************************************
**
*ASSEMBLY, NAME=ASSEMBLY1
**
*INSTANCE, NAME=Part-Default_1, PART=Part-Default
*END INSTANCE
**
*END ASSEMBLY
**
**
**
*MATERIAL, NAME = Default-Steel
*ELASTIC, TYPE=ISOTROPIC
2.068000e+05, 2.900000e-01
*DENSITY
7.000000e-06
*CONDUCTIVITY,TYPE=ISO
4.500000e-02
*SPECIFIC HEAT
5.000000e+02
**
**
************************************** H I S T O R Y *************************************
**
*PREPRINT
**
**************************************** S T E P 1 ***************************************
*STEP,INC=100,NAME=Default Set
**
*STATIC
1, 1, 1e-05, 1
**
**
**
**
*END STEP
