*HEADING
cubit(ty-resonator/rectangular_waveguide_3d_less_coarse_pec.inp): 05/24/2022: 13
version: 2022.4
**
********************************** P A R T S **********************************
*PART, NAME=Part-Default
**
********************************** N O D E S **********************************
*NODE, NSET=ALLNODES
       1,   -5.000000e-01,    2.500000e-01,    3.750000e-01
       2,   -5.000000e-01,    2.500000e-01,   -3.750000e-01
       3,   -5.000000e-01,   -2.500000e-01,   -3.750000e-01
       4,   -5.000000e-01,   -2.500000e-01,    3.750000e-01
       5,    5.000000e-01,   -2.500000e-01,    3.750000e-01
       6,    5.000000e-01,   -2.500000e-01,   -3.750000e-01
       7,    5.000000e-01,    2.500000e-01,   -3.750000e-01
       8,    5.000000e-01,    2.500000e-01,    3.750000e-01
       9,   -5.000000e-01,    2.500000e-01,    2.678571e-01
      10,   -5.000000e-01,    2.500000e-01,    1.607143e-01
      11,   -5.000000e-01,    2.500000e-01,    5.357143e-02
      12,   -5.000000e-01,    2.500000e-01,   -5.357143e-02
      13,   -5.000000e-01,    2.500000e-01,   -1.607143e-01
      14,   -5.000000e-01,    2.500000e-01,   -2.678571e-01
      15,   -5.000000e-01,   -1.500000e-01,   -3.750000e-01
      16,   -5.000000e-01,   -5.000000e-02,   -3.750000e-01
      17,   -5.000000e-01,    5.000000e-02,   -3.750000e-01
      18,   -5.000000e-01,    1.500000e-01,   -3.750000e-01
      19,   -5.000000e-01,   -2.500000e-01,    2.678571e-01
      20,   -5.000000e-01,   -2.500000e-01,    1.607143e-01
** ... 691 like lines cut
**
********************************** E L E M E N T S ****************************
*ELEMENT, TYPE=C3D4, ELSET=Tetrahedrons
       1,     321,     322,     323,     324
       2,     325,     326,     327,     328
       3,     322,     323,     328,     329
       4,     324,     328,     330,     331
       5,     322,     328,     331,     332
       6,     326,     327,     328,     330
       7,     333,     334,     335,     336
       8,     336,     338,     337,     339
       9,     336,     339,     337,     340
      10,     336,     340,     341,     342
      11,     336,     339,     340,     343
      12,     344,     345,     346,     347
      13,     348,     349,     350,     351
      14,     352,     353,     354,     355
      15,     353,     355,     356,     357
      16,     352,     356,     355,     358
      17,     323,     359,     360,     361
      18,     277,     297,     362,     363
      19,     361,     365,     364,     366
      20,     361,     365,     366,     367
** ... 3185 like lines cut
*ELEMENT, TYPE=STRI3, ELSET=PECWalls
    3206,     135,      64,      45
    3207,     136,     135,      46
    3208,     137,     136,      47
    3209,       8,      49,      48
    3210,      64,       5,      45
    3211,     138,     137,      49
    3212,      28,       4,      57
    3213,      56,     139,      55
    3214,       1,      25,      56
    3215,     140,      54,      55
    3216,     141,      53,      54
    3217,     142,      56,      25
    3218,      57,      58,     143
    3219,     144,      52,      53
    3220,     145,      27,      28
    3221,     146,      26,      27
    3222,     147,      51,      52
    3223,     145,     143,     161
    3224,     151,      50,      51
    3225,     153,     152,      62
** ... 616 like lines cut
**
********************************** P R O P E R T I E S ************************
*SOLID SECTION, ELSET=Tetrahedrons, MATERIAL=Default-Steel
*SHELL SECTION, ELSET=PECWalls, SECTION INTEGRATION=SIMPSON, MATERIAL=Default-Steel
1.000000e+00
**
*END PART
**
**
**
********************************** E N D   P A R T S **********************************
**
**
********************************** A S S E M B L Y ************************************
**
*ASSEMBLY, NAME=ASSEMBLY1
**
*INSTANCE, NAME=Part-Default_1, PART=Part-Default
*END INSTANCE
**
*END ASSEMBLY
**
**
**
*MATERIAL, NAME = Default-Steel
*ELASTIC, TYPE=ISOTROPIC
2.068000e+05, 2.900000e-01
*DENSITY
7.000000e-06
*CONDUCTIVITY,TYPE=ISO
4.500000e-02
*SPECIFIC HEAT
5.000000e+02
**
**
************************************** H I S T O R Y *************************************
**
*PREPRINT
**
**************************************** S T E P 1 ***************************************
*STEP,INC=100,NAME=Default Set
**
*STATIC
1, 1, 1e-05, 1
**
**
**
**
*END STEP
