*HEADING
cubit(op/git_repos/cavity-resonator/test_somewhat_fine_mesh.inp): 05/30/2022: 14
version: 2021.11
**
********************************** P A R T S **********************************
*PART, NAME=Part-Default
**
********************************** N O D E S **********************************
*NODE, NSET=ALLNODES
       1,   -5.000000e-01,    2.500000e-01,    3.750000e-01
       2,   -5.000000e-01,    2.500000e-01,   -3.750000e-01
       3,   -5.000000e-01,    2.500000e-01,    3.355263e-01
       4,   -5.000000e-01,    2.500000e-01,    2.960526e-01
       5,   -5.000000e-01,    2.500000e-01,    2.565789e-01
       6,   -5.000000e-01,    2.500000e-01,    2.171053e-01
       7,   -5.000000e-01,    2.500000e-01,    1.776316e-01
       8,   -5.000000e-01,    2.500000e-01,    1.381579e-01
       9,   -5.000000e-01,    2.500000e-01,    9.868421e-02
      10,   -5.000000e-01,    2.500000e-01,    5.921053e-02
      11,   -5.000000e-01,    2.500000e-01,    1.973684e-02
      12,   -5.000000e-01,    2.500000e-01,   -1.973684e-02
      13,   -5.000000e-01,    2.500000e-01,   -5.921053e-02
      14,   -5.000000e-01,    2.500000e-01,   -9.868421e-02
      15,   -5.000000e-01,    2.500000e-01,   -1.381579e-01
      16,   -5.000000e-01,    2.500000e-01,   -1.776316e-01
      17,   -5.000000e-01,    2.500000e-01,   -2.171053e-01
      18,   -5.000000e-01,    2.500000e-01,   -2.565789e-01
      19,   -5.000000e-01,    2.500000e-01,   -2.960526e-01
      20,   -5.000000e-01,    2.500000e-01,   -3.355263e-01
** ... 2853 like lines cut
**
********************************** E L E M E N T S ****************************
*ELEMENT, TYPE=C3D4, ELSET=Tetrahedrons
       1,    1205,    1206,    1207,    1208
       2,    1207,    1208,    1209,    1210
       3,    1208,    1211,    1209,    1212
       4,    1208,    1211,    1212,    1213
       5,    1214,    1215,    1216,    1217
       6,    1214,    1217,    1216,    1218
       7,    1214,    1217,    1218,    1219
       8,    1217,    1221,    1220,    1222
       9,    1223,    1224,    1225,    1226
      10,    1217,    1227,    1222,    1228
      11,    1217,    1218,    1219,    1229
      12,    1230,    1231,    1232,    1233
      13,    1230,    1233,    1232,    1234
      14,    1233,    1236,    1235,    1237
      15,     407,    1238,    1239,    1240
      16,    1233,    1241,    1235,    1242
      17,    1233,    1236,    1237,    1243
      18,    1233,    1234,    1236,    1243
      19,    1244,    1245,    1246,    1247
      20,    1244,    1245,    1247,    1248
** ... 13283 like lines cut
*ELEMENT, TYPE=STRI3, ELSET=PECWalls
   13304,     136,     497,     135
   13305,     498,     513,     137
   13306,     499,     498,     138
   13307,     500,     499,     139
   13308,     142,     501,     141
   13309,     502,     501,     142
   13310,     503,     502,     143
   13311,     504,     503,     144
   13312,     505,     504,     145
   13313,     506,     505,     146
   13314,     507,     506,     147
   13315,     508,     507,     148
   13316,     509,     508,     149
   13317,     510,     509,     150
   13318,     511,     510,     151
   13319,     116,     153,     152
   13320,     512,     140,     141
   13321,     513,     136,     137
   13322,     514,     511,     153
   13323,     497,      77,     135
** ... 2384 like lines cut
**
********************************** P R O P E R T I E S ************************
*SOLID SECTION, ELSET=Tetrahedrons, MATERIAL=Default-Steel
*SHELL SECTION, ELSET=PECWalls, SECTION INTEGRATION=SIMPSON, MATERIAL=Default-Steel
1.000000e+00
**
*END PART
**
**
**
********************************** E N D   P A R T S **********************************
**
**
********************************** A S S E M B L Y ************************************
**
*ASSEMBLY, NAME=ASSEMBLY1
**
*INSTANCE, NAME=Part-Default_1, PART=Part-Default
*END INSTANCE
**
*END ASSEMBLY
**
**
**
*MATERIAL, NAME = Default-Steel
*ELASTIC, TYPE=ISOTROPIC
2.068000e+05, 2.900000e-01
*DENSITY
7.000000e-06
*CONDUCTIVITY,TYPE=ISO
4.500000e-02
*SPECIFIC HEAT
5.000000e+02
**
**
************************************** H I S T O R Y *************************************
**
*PREPRINT
**
**************************************** S T E P 1 ***************************************
*STEP,INC=100,NAME=Default Set
**
*STATIC
1, 1, 1e-05, 1
**
**
**
**
*END STEP
